Circuit: *** SPICE deck for cell dac{sch} from library lab_1_dac

Fatal Error: No analysis request found.
