Circuit: *** SPICE deck for cell dac_gnd{sch} from library lab_1_dac

Direct Newton iteration for .op point succeeded.

Date: Fri Sep 26 09:55:30 2025
Total elapsed time: 0.067 seconds.

tnom = 27
temp = 27
method = trap
totiter = 3
traniter = 0
tranpoints = 0
accept = 0
rejected = 0
matrix size = 13
fillins = 0
solver = Normal
Matrix Compiler1: 550 bytes object code size
Matrix Compiler2: 905 bytes object code size
