Circuit: *** SPICE deck for cell dac_sim{sch} from library lab_1_dac

V1: Missing value, assumed 0V @ DC
V2: Missing value, assumed 0V @ DC
V3: Missing value, assumed 0V @ DC
V4: Missing value, assumed 0V @ DC
Direct Newton iteration for .op point succeeded.

Date: Fri Sep 26 10:40:20 2025
Total elapsed time: 0.086 seconds.

tnom = 27
temp = 27
method = trap
totiter = 3
traniter = 0
tranpoints = 0
accept = 0
rejected = 0
matrix size = 21
fillins = 0
solver = Normal
Matrix Compiler1: 752 bytes object code size
Matrix Compiler2: 1.43 KB object code size
