Circuit: *** SPICE deck for cell r_divider{lay} from library lab_2

Direct Newton iteration for .op point succeeded.

Date: Wed Sep 17 11:42:59 2025
Total elapsed time: 0.073 seconds.

tnom = 27
temp = 27
method = trap
totiter = 3
traniter = 0
tranpoints = 0
accept = 0
rejected = 0
matrix size = 3
fillins = 0
solver = Normal
Matrix Compiler1: 50 bytes object code size
Matrix Compiler2: 175 bytes object code size
