Circuit: *** SPICE deck for cell r_divider_sim{sch} from library lab_1_dac

Direct Newton iteration for .op point succeeded.

Date: Fri Sep 26 09:45:13 2025
Total elapsed time: 0.071 seconds.

tnom = 27
temp = 27
method = trap
totiter = 3
traniter = 0
tranpoints = 0
accept = 0
rejected = 0
matrix size = 4
fillins = 0
solver = Normal
Matrix Compiler1: 100 bytes object code size
Matrix Compiler2: 248 bytes object code size
